Circuit: * C:\Users\Erdem\YandexDisk\OKUL\20171\EE313\TermProject\LTSpice\Draft1.asc

Per .tran options, skipping operating point for transient analysis.

Date: Wed Jan 03 21:05:36 2018
Total elapsed time: 65.807 seconds.

tnom = 27
temp = 27
method = modified trap
totiter = 3767758
traniter = 3767758
tranpoints = 1130908
accept = 781500
rejected = 349408
matrix size = 21
fillins = 7
solver = Normal
Matrix Compiler1: 1.21 KB object code size  2.0/1.1/[0.3]
Matrix Compiler2: 1.88 KB object code size  0.8/1.6/[0.4]

