Circuit: * C:\Users\Erdem\YandexDisk\OKUL\20171\EE313\TermProject\LTSpice\poweramp.asc

WARNING: Less than two connections to node -V.  This node is used by VNSUPPLY.
WARNING: Less than two connections to node +V.  This node is used by VPSUPPLY.
WARNING: Less than two connections to node NC_01.  This node is used by V1.
Per .tran options, skipping operating point for transient analysis.

Date: Sat Jan 20 00:07:21 2018
Total elapsed time: 6.326 seconds.

tnom = 27
temp = 27
method = modified trap
totiter = 2320705
traniter = 2320705
tranpoints = 1013078
accept = 828590
rejected = 184488
matrix size = 21
fillins = 7
solver = Normal
Matrix Compiler1: 1.40 KB object code size  0.6/0.2/[0.2]
Matrix Compiler2: 1.55 KB object code size  0.1/0.2/[0.1]

