Circuit: * C:\Users\Erdem\YandexDisk\OKUL\20171\EE313\TermProject\LTSpice\PowerAmp_only.asc

WARNING: Less than two connections to node -V.  This node is used by VNSUPPLY1.
Direct Newton iteration for .op point succeeded.

Date: Wed Jan 03 01:51:41 2018
Total elapsed time: 41.164 seconds.

tnom = 27
temp = 27
method = modified trap
totiter = 14349950
traniter = 14349939
tranpoints = 4493864
accept = 2997668
rejected = 1496196
matrix size = 23
fillins = 13
solver = Normal
Matrix Compiler1: 2.14 KB object code size  0.7/0.3/[0.2]
Matrix Compiler2: off  [0.2]/0.3/0.3

