Circuit: * C:\Users\Erdem\YandexDisk\OKUL\20171\EE313\TermProject\LTSpice\poweramp - original.asc

Direct Newton iteration for .op point succeeded.

Date: Wed Jan 03 00:54:40 2018
Total elapsed time: 0.657 seconds.

tnom = 27
temp = 27
method = modified trap
totiter = 293985
traniter = 293977
tranpoints = 80012
accept = 48021
rejected = 31991
matrix size = 12
fillins = 3
solver = Normal
Matrix Compiler1: 838 bytes object code size  0.2/0.1/[0.1]
Matrix Compiler2: off  [0.1]/0.2/0.1

