Circuit: * C:\Users\Erdem\Documents\GitHub\EE313-Project\LTSpice\VCO_only.asc

WARNING: Less than two connections to node ++V.  This node is used by VPSUPPLY2.
Per .tran options, skipping operating point for transient analysis.
Changing Tseed to 1e-008
Changing Tseed to 1e-010
Changing Tseed to 1e-007
Changing Tseed to 1e-011
Changing Tseed to 1e-006
Changing Tseed to 1e-012
Changing Tseed to 1e-005
Changing Tseed to 1e-013
Changing Tseed to 0.0001

Date: Sat Jan 20 16:57:47 2018
Total elapsed time: 221.444 seconds.

tnom = 27
temp = 27
method = modified trap
totiter = 32487986
traniter = 32487986
tranpoints = 8178176
accept = 5662451
rejected = 2515716
matrix size = 59
fillins = 122
solver = Normal
Matrix Compiler1: 10.06 KB object code size  2.0/0.9/[0.5]
Matrix Compiler2: 7.09 KB object code size  0.6/0.8/[0.4]

