Circuit: * C:\Users\Erdem\Documents\GitHub\EE313-Project\LTSpice\VCO_only.asc

WARNING: Less than two connections to node NC_01.  This node is used by R5.
Per .tran options, skipping operating point for transient analysis.

Date: Sat Jan 20 01:23:40 2018
Total elapsed time: 381.835 seconds.

tnom = 27
temp = 27
method = modified trap
totiter = 44761210
traniter = 44761210
tranpoints = 11149795
accept = 8027485
rejected = 3122310
matrix size = 64
fillins = 146
solver = Normal
Matrix Compiler1:     613 opcodes  2.2/[1.0]/1.0
Matrix Compiler2: off
